314
 energy: -513.563536459846 gnorm: 0.002663069685 xtb: 6.6.1 (8d0f1dd)
N           37.52648193115685       27.13323558452604       35.92365676283712
H           38.23614510551682       27.85131167075757       35.78510596675669
C           36.32063354850120       27.42531074934945       35.36308667750644
H           35.53885690592490       26.75724408600472       35.72184283337108
C           35.87422257122336       28.91708994646080       35.33737128287012
H           36.70657696299052       29.50808898020835       34.95267533977283
H           35.02331138663515       29.06318805963748       34.66992211693022
C           35.51039391849223       29.37304266146699       36.75506477244915
H           36.13100813813055       28.81844408219462       37.46668060126631
C           35.80384028843127       30.86999499022158       36.94304567806013
H           35.55211156531418       31.44762727466925       36.05730331892780
H           35.18927268268516       31.25890352447882       37.75373343348355
H           36.83163666809048       31.06817868014341       37.21916838115935
C           34.04117051336707       29.05006438516168       37.01907264788753
H           33.83953263636384       28.00147037492536       36.82476065432533
H           33.79211232698667       29.26839495291306       38.05387641572577
H           33.41093318192074       29.66317400381238       36.37894763456868
C           36.54333231276772       27.17955618045733       33.81523496963402
O           37.44903593222536       27.59927664971838       33.20652422919995
C           38.10280173561214       39.34758136498017       38.73805800009450
C           39.33690869474864       39.61644123790448       38.22727093093038
C           39.76910165222488       39.05527753247104       36.98528022598958
C           37.15087118137894       38.50178376732310       38.09324147240191
C           37.57733875754229       37.94568954213780       36.85704682012010
C           38.81019248884337       38.20367948841505       36.32717534826323
C           35.86442428805261       38.23279038399462       38.63756734744343
C           34.74604321166773       37.49631528830834       38.22358948392097
C           33.48689829621327       37.39667485442992       39.01845920290745
H           37.81857772079169       39.78726709537059       39.68569949303107
H           40.02446091157052       40.25912095637511       38.75803722927044
H           39.10649095701002       37.74702947520676       35.39045790715434
H           36.91929662327764       37.26709064472027       36.33415693272506
H           35.67633400791739       38.71079060242688       39.59742562771122
O           40.91809515263618       39.27512755550473       36.51537375118427
O           33.13548878865640       37.87616222290914       40.09982476993265
N           34.56017773270024       36.72331464309349       37.08036668941097
N           32.63954202089937       36.55798272614140       38.27734558206841
C           33.37192507883278       36.16777245478676       37.13043454369245
C           31.29594781718039       36.22192493973403       38.70443317795758
C           32.75275746333430       35.34178759742666       36.01352161359375
H           30.85173218417231       37.15369680210162       39.08144691738835
H           30.74774892659159       35.84968592915720       37.83447524301116
C           31.15290891988860       35.19373573735756       39.81724654288217
O           30.52926125736770       35.27486859783109       40.82961646437944
N           31.97674342349263       36.28349052763033       35.26430421860799
H           32.61528736875315       36.88896242018719       34.75480857449311
H           32.09445662619862       34.57468437766330       36.43578091157094
C           33.78586868654538       34.64835136436430       35.05297150352213
C           34.81245386203012       35.63331653823953       34.50106236958066
H           35.81046139502993       35.20964969472251       34.52808188165877
H           34.86140095492862       36.53074556381661       35.11024871515514
H           34.58278294102803       35.92396408331682       33.47884986946097
H           33.17914589299394       34.22463311499602       34.24469589000081
O           34.45211820645397       33.53570281658431       35.59744696753751
H           35.13317210207440       33.84873829814669       36.20803685971381
N           42.77892465756360       39.05090530728415       27.80033181017149
H           43.17097971080708       38.10891199682695       27.75800987783558
C           42.61704638967395       39.40000472021615       29.17118885830563
H           42.34629640746749       40.46479035631187       29.19082882630455
C           41.46998669367058       38.59469145908295       29.82925147646968
H           40.83738774569797       38.21618531571479       29.02358628652703
H           41.89555233074054       37.73340972993873       30.35649444333574
C           40.63790246790693       39.42313632532085       30.75943310494966
C           39.55293899991360       40.13407131863152       30.25487993136359
H           39.38401452511287       40.12896206061226       29.18831596929018
C           38.67546701845185       40.80983151480150       31.08070344273850
H           37.83125413280312       41.33234035618163       30.65879695919806
C           38.88848538127396       40.81576146850826       32.45803482049384
O           38.06051944205556       41.55847728144143       33.25359853449493
H           37.36309968709070       41.96195933331241       32.71105430610373
C           39.99205266004888       40.13296715833827       32.97772172636525
H           40.14134781159316       40.10756710744378       34.04809937454857
C           40.84458203356307       39.42709032313802       32.13742132311025
H           41.65975614323521       38.86735094955344       32.57184278468369
C           43.87547719357219       39.18925668355234       30.02161173908439
O           44.58932813135649       38.19834182001871       29.90828181935517
N           44.13180922378874       40.19281051139559       30.87458863708229
H           43.37325284683515       40.80914872031016       31.13054420263773
C           45.26939011937379       40.15937162047133       31.75954489459784
H           46.06768493118594       39.61414062213457       31.24109209270025
C           45.69935743497300       41.58462095968085       32.06489741844591
H           44.82608136484640       42.18436604960252       32.32544308902141
H           46.37477563395402       41.57761469380483       32.92346824396729
C           46.44664015160433       42.12301595815029       30.85493555311541
O           47.31646291444041       41.45476840789034       30.30638882527058
N           46.08458628657014       43.33718825578262       30.44348360835312
H           46.48876141439897       43.68525018908774       29.58644466177559
H           45.23824691056470       43.76565820847438       30.78239207751270
C           44.92198627423548       39.43313629674320       33.04857467596684
O           43.75633290395162       39.16397185322254       33.33144257280717
N           45.96966036216907       39.13706384109526       33.81825391503244
H           46.90583057028158       39.32322024739961       33.48888635370956
C           45.85293504269455       38.47905442443559       35.10356308159242
H           44.97424120893724       37.82906514681363       35.10245695613874
C           47.12575795963356       37.70070378852555       35.39677450596549
H           47.09327981578357       37.31300198438296       36.41866809263031
H           48.00024662237394       38.33799633966643       35.26480737877235
S           47.22955407438422       36.29270039002962       34.29039017341425
C           45.78609219308496       39.55777146975953       36.14600821589453
O           46.50137549733009       40.52209392391779       35.94848235421644
N           44.99163693630630       39.41906664853218       37.21010377356618
H           44.45312168632953       38.56813925624220       37.31180718912272
C           44.90970580268153       40.45247641709404       38.23060277898360
H           45.81822038638830       41.05308821106760       38.08237771210886
C           43.67516661051137       41.38146680802750       38.11079602787196
H           42.79634936679874       40.84503678911204       38.48318212813270
H           43.82583399643629       42.28611590840496       38.69419648493537
C           43.41182440235019       41.77514181046049       36.70759045536794
N           42.78543878909586       40.93003272930814       35.82484612733514
H           42.37576137772973       40.03552113063171       36.03893571721589
C           42.70449769805084       41.57614723388494       34.65926627958831
H           42.26678701580323       41.16018112018964       33.77603627402200
N           43.25790433166446       42.77210683897572       34.73686423719396
C           43.69202298137952       42.92627096902107       36.02443211958216
H           44.16993995336203       43.82398023777303       36.34696986576033
C           44.88200630701346       39.85430781517031       39.61349208795082
O           44.96977271247009       38.64679503469355       39.80109911334036
N           44.76890685753284       40.77280855703140       40.58463868458968
H           44.80299193487340       41.75330184871414       40.34380293853280
C           44.65713610323868       40.46641540428168       41.98854562019778
H           44.61449408319910       39.37795834614155       42.08719560803854
C           45.75220582563180       41.09844250904931       42.85288911951505
H           45.62634248995916       42.18362118975951       42.85983453019100
H           45.63357411089243       40.73273949654429       43.87475343871844
C           47.18100380342888       40.83754797006652       42.42044114828908
O           47.95666964211081       41.77463068696369       42.29042076660787
N           47.53601843453183       39.56372046924061       42.28372693973423
H           48.46505631709424       39.35124912263547       41.95489200819581
H           46.85705494759421       38.82228254442720       42.31010132081882
C           43.38723156101121       41.11851022085828       42.50786514937030
O           43.23564068189752       42.29757297927300       42.59527256003373
N           42.82716163173519       45.97727377070142       33.72193736510569
H           43.07623017110841       44.99947092774305       33.86481842002218
C           43.61278093469970       46.63632469998962       32.83897342670267
H           43.41457414273814       47.70759081273471       32.84123520088558
C           45.11949606481279       46.25297964511292       32.91613510444467
H           45.22999389861545       45.18523478326559       32.73622075410680
H           45.67386822720223       46.80126459926308       32.15294625412408
C           45.66221001016402       46.56458560869684       34.31351890190948
H           44.97895740117811       47.24077353280477       34.82978084038509
H           45.71700580289323       45.64175966529734       34.88952551867978
C           47.04255171691968       47.22135831582322       34.20476892845470
H           47.70742093176762       46.53087274771928       33.67461018087607
H           46.94742022023778       48.14974008705910       33.63206949731359
N           47.57909744938978       47.50647729425340       35.51930658741006
H           46.96445607916463       47.36251827366447       36.30495237666306
C           48.76549096123146       48.08037006722649       35.71474244116553
N           49.59895338049451       48.28545601546137       34.70324556401226
H           49.36569169792479       47.99386230151000       33.77094071905763
H           50.50530967920118       48.69013244859785       34.86435237780455
N           49.11875893095287       48.44474445400748       36.94394526253059
H           48.52315669874125       48.25132763967867       37.73008097586447
H           50.03777051437783       48.81021867361864       37.12633443234837
C           43.34136095389950       46.01520495545990       31.43429964707387
O           43.79014315272472       45.01264397795231       31.05839926249691
N           44.29742730907722       35.66306368421667       42.93303918357476
H           43.87812552537115       34.74448586969040       43.06288387398964
C           45.18490900399178       35.62546107876972       41.82312075429000
H           45.53760966459937       36.63818165887939       41.60522508938976
C           46.39316501656036       34.69573434375528       42.14442028518423
H           46.43286542986493       34.55321654054676       43.22933948667050
H           46.20637116580103       33.72870434805755       41.66655383902608
O           47.61018970649116       35.16876166362417       41.64288812864382
H           47.97632437474394       35.82117552439248       42.25856581404165
C           44.41350000186275       35.06466385056502       40.63829065259619
O           44.11954260329694       33.86909586269368       40.57614846061583
N           43.99634737450406       35.98375489229081       39.76517332342511
H           44.38615256155095       36.92199394600748       39.76606646912464
C           43.06461739073810       35.64495530332798       38.71581898392124
H           42.77627072262833       34.60087523855210       38.88956456380737
C           41.78530612429861       36.53208888142788       38.82735171390050
H           42.05967971037335       37.54440803224981       38.47767793599466
C           40.67212973960105       36.02014018973579       37.91902422850246
H           40.92731664310233       36.19751358372984       36.87595297514810
H           40.49553322775753       34.95851084386704       38.05422227626985
H           39.74619913568817       36.54360729944042       38.13861691902134
O           41.31049405829011       36.62524016457208       40.15670963277176
H           42.03872975501974       36.90274004575935       40.73428941777767
C           43.64339667592166       35.73955000190009       37.30330881183592
O           44.17954811080796       36.77018401946490       36.89398254876734
N           43.46871608836378       34.63594101198306       36.56333662045463
H           43.12042850714803       33.78265615116582       36.99449868490063
C           43.77574320296269       34.59157190365777       35.15217170614147
H           43.84501436281474       35.65792865142529       34.87278178111742
C           45.12421793350500       33.96108684004570       34.68486030677246
H           45.61963719469600       34.65350726520600       34.00491716684395
H           44.89543995374321       33.04307166550144       34.12867682730788
S           46.32500256181473       33.47223752270802       35.93521850253821
C           42.58478423662813       34.04291736494911       34.37831321705075
O           41.78268234841895       33.24085052696346       34.85145848274551
N           42.43869096013962       34.56576690800256       33.16980117043182
H           43.08057818318922       35.24469207294997       32.78102384021743
C           41.37548115811385       34.13906399351146       32.30638265243974
H           41.12142677805809       33.11574471418970       32.59481996213979
C           40.11671262654252       35.02188113856963       32.43853448073119
H           39.92657974353157       35.52633610232277       31.47984562832463
H           39.25003401844197       34.41482689868992       32.68072635710198
O           40.30183026902554       36.03548212932004       33.40473647594015
H           39.63714192267697       35.92367020612564       34.10081633150642
C           41.92876311574274       34.14569401471874       30.89927450278676
O           42.90290420381947       34.82958802577540       30.64722667286669
N           41.32994860008701       33.37078475449507       30.00756968742362
H           40.65379839035999       32.69071244199612       30.34537339278983
C           41.81959759359915       33.24880142614986       28.65374608053446
H           42.43578836411826       34.12056594546789       28.43068234094333
C           42.58176231391351       31.93413223991050       28.47677203789387
H           42.86634507334742       31.79831343948285       27.43776261521520
H           43.47713026155479       31.96830839153093       29.09299880403085
H           41.95668231195173       31.10403427083819       28.79523987163802
C           40.61856264997481       33.10292869050371       27.77522602796943
O           39.80221686476883       32.23952049613506       27.93611244473675
N           35.42058930786086       31.07525993635222       27.80687532676466
H           34.76148537077614       30.37035442609171       28.14356351654700
C           36.17100652581455       31.54774093248027       28.92791788275421
H           36.99061456060245       32.13772235500862       28.50694430883921
C           35.30023067371289       32.41335185051217       29.86694221165872
H           35.05367939735703       33.33415585338385       29.33768386656302
H           34.37167842137590       31.86758293094864       30.05505024228920
C           35.98233441806785       32.73570555443025       31.17862891135552
H           36.12278744849043       31.82274853119695       31.76528871808685
C           37.32155077793779       33.40219183198071       30.89300101288029
H           37.27970261206590       34.45036798778850       31.19884724159353
H           38.13246089334784       32.95991113925703       31.46250803408037
H           37.58723858193353       33.40773929569235       29.84318074468525
C           35.11173540727232       33.69469732353380       31.97839983109102
H           34.15215549546984       33.24301372447984       32.21909757117374
H           35.61346175328791       33.93744606814456       32.90612195282286
H           34.93958642261361       34.60891114412359       31.41824265650123
C           36.72616355450332       30.42756053091111       29.79759513418255
O           36.09951903602700       29.40793399912027       30.03776209111330
N           37.93362734161015       30.69501032295707       30.27252929686840
H           38.45754111773629       31.46444559762028       29.88327864909131
C           38.68105666329825       29.82094641446794       31.12234518998675
H           37.97765402290533       29.13582877263822       31.59663879294812
C           39.70894479830646       29.07392597407330       30.26947955129995
H           39.18197855429419       28.38279703052424       29.61112342289424
H           40.21876298563517       29.81548147263291       29.64830323675549
C           40.71557768815730       28.34256073792867       31.14364700794161
H           41.14793144319447       29.07603798230355       31.82697804964718
C           39.98832361102647       27.26177859734115       31.94713051378353
H           38.97717717994188       27.12807237853641       31.58057336014907
H           40.48129891052449       26.30161995566203       31.84643758613674
H           39.95094668771499       27.50262425416029       33.00470434332598
C           41.80299744849115       27.75141223978648       30.25249636655175
H           42.31816173055464       28.54698834958699       29.71491758360926
H           42.54174179612914       27.18120148232042       30.79403876992606
H           41.33937095818361       27.09815123174394       29.51514934786685
C           39.38402378321702       30.69351569008289       32.14510437227212
O           40.05592194721855       31.65501087359544       31.76731793290007
N           39.20361279296169       30.33922702727360       33.41693864959338
H           38.70691974365378       29.47986304914890       33.61522956170639
C           39.72229304823140       31.05354566228895       34.56400683428547
H           40.38407769950229       31.84040825069651       34.20270293347816
C           38.57840819542042       31.66178099030474       35.37607895054494
H           37.84549220605174       30.88472114370426       35.55193760101970
H           38.96439880216266       31.98364316892909       36.34782548065675
C           37.95791757033214       32.86914216104314       34.70068288655779
H           38.57923052882824       33.22206437668842       33.88063415011796
H           36.96524784326333       32.64544846412750       34.30047802638349
C           37.79509539655816       34.00154197991503       35.71161798825640
O           37.78006299671308       35.17322082551154       35.28349055025108
O           37.68750743811783       33.63059063205331       36.91021693497292
C           40.47544853561867       30.17636613646971       35.54371625289990
O           40.11715035829209       29.05021433000168       35.85134492193149
N           41.50666219188827       30.75548496597175       36.12690265919480
H           41.78511687630989       31.70424202045869       35.90498382072394
C           42.20588316113209       30.04460032379790       37.15982267926961
H           41.54770672245123       29.22024042837468       37.45930606537579
C           43.53569847917632       29.46162757235559       36.68422767415223
H           44.20964890943168       30.27803817810171       36.40955094714211
H           43.98121079369930       28.89516404223472       37.50157693744409
C           43.23303565197536       28.58901305392466       35.51245380145131
C           42.83386815557206       27.26868474823997       35.68950317145236
H           42.78352708546634       26.86196444878500       36.68770883171354
C           42.55080177823121       26.47454392149563       34.58927901035028
H           42.26306355767268       25.44488612485050       34.72028904691892
C           42.64130287796625       27.02255048372473       33.31837219971174
H           42.50077556056471       26.36379786995224       32.48088960544584
C           42.99134188190999       28.35223221564610       33.13048610491546
H           43.15112469293161       28.76806579371511       32.15183478216825
C           43.26923797635281       29.13391127266448       34.23569649414439
H           43.55686336639635       30.17209729868555       34.11210713099991
C           42.38496746099129       31.01277038964846       38.28220907360805
O           42.67830495995487       32.19353853031249       38.08447894451873
N           42.09584604095308       30.54390750595156       39.47851995854982
H           41.75889354539039       29.61024148358018       39.66455594071518
C           42.13459443777290       31.49548775891995       40.54155743081917
H           42.88048495447612       32.24748958149721       40.26780259942713
C           40.77707298293402       32.22178065635732       40.70798844669815
H           40.10786344483179       31.56244211054192       41.27493468908449
C           40.97504206104068       33.52252660066939       41.47203364521208
H           41.39538897990365       33.34095501597498       42.45979712355116
H           41.64328067217637       34.18124766581239       40.92606694157671
H           40.02698104247305       34.04172145630172       41.58526314861344
C           40.10542912460853       32.52568740068659       39.37131285789459
H           39.18001996354323       33.07820187211331       39.52679664782836
H           40.74449835979554       33.13199448464976       38.73771983023550
H           39.85137394662593       31.62112705915211       38.81895033121934
C           42.52033233179949       30.76719704943045       41.78753057296947
O           41.99176263191345       29.71592790976611       42.09230598823524
N           43.46252886985751       31.36297579090805       42.50837757505636
H           43.86154014313667       32.23342852611614       42.17498431618058
C           43.88861460699901       30.81863545630234       43.76016553624105
H           43.19955221675655       30.01473841666359       44.02611243534322
C           45.32522578459601       30.26754415073306       43.62141396897619
H           46.01540230761944       31.11216097169815       43.47892110184371
C           45.60674957050345       29.53162343165909       44.90247188460571
H           44.93039800659206       28.68699560759338       44.98831730543465
H           46.62647002545722       29.15461936932731       44.90502408668662
H           45.46590508491240       30.20175274627210       45.74511235964025
O           45.38530845570248       29.39645204721100       42.52896350161287
H           45.39492813090057       29.88327598493943       41.69769372993622
C           43.99676551338349       31.90531669002146       44.78155997727513
O           44.35321429001077       33.02007930573888       44.53221065921908
