314
 energy: -512.498192918597 gnorm: 0.002580874555 xtb: 6.6.1 (8d0f1dd)
N           37.52464244968233       27.13379316473802       35.92372702988912
H           38.23401155735505       27.85136237877791       35.77880700847621
C           36.31787939909452       27.42569568536074       35.36171001689264
H           35.53525904028547       26.75927620664318       35.72223795315195
C           35.87215193369487       28.91797410625130       35.33747249793441
H           36.70610969116418       29.50610624923096       34.95307570314090
H           35.02069154505463       29.06109042727521       34.67020034839751
C           35.50836245786581       29.37415639366187       36.75488961231319
H           36.12559345353397       28.81585996548705       37.46663512782148
C           35.80174008935776       30.87091095608844       36.94246544493240
H           35.54727130478521       31.44436770143232       36.05581969959780
H           35.18535082137083       31.25533406452418       37.75352469653389
H           36.82951025963374       31.06599235637860       37.21932808071328
C           34.03891684357346       29.05116159754905       37.01855628655360
H           33.83576910414002       28.00219628466698       36.82547462448557
H           33.78770934880669       29.26618537317794       38.05367434515610
H           33.40598990235333       29.66091954523467       36.37778590066419
C           36.54169795070909       27.17955495992534       33.81783974048239
O           37.44705860689866       27.59902445265330       33.20738378151187
C           38.10409820191359       39.35033401661629       38.73854569439481
C           39.33499897058652       39.61783523612296       38.22987547513231
C           39.77210167805543       39.05661106400201       36.98142321037297
C           37.14749352485349       38.50113194088146       38.09165553193034
C           37.57641187352591       37.94501293472871       36.85143250236670
C           38.80659642093122       38.20222421624448       36.32236008653798
C           35.86626030070673       38.23581946920036       38.63567176670295
C           34.74470991852245       37.49489123602857       38.21559957704537
C           33.48393878869672       37.39896896015750       39.01898960467991
H           37.81544449058347       39.79224721554946       39.68305236882066
H           40.01574399369129       40.26856961274427       38.75723423740982
H           39.09559200399109       37.75334507881651       35.38274644492668
H           36.91646068315629       37.26880172364404       36.32934954837107
H           35.67341700349809       38.71269421714030       39.59426774875195
O           40.91122330023401       39.27611810770343       36.51717411661632
O           33.13325864052027       37.87551363239319       40.09461049649226
N           34.55839432122200       36.73227924069796       37.07805404363663
N           32.63493228608483       36.56090158410632       38.26921567624042
C           33.36656009274510       36.17211907756666       37.12276737946544
C           31.29616429524807       36.21542257522305       38.69986086437764
C           32.75154532182835       35.33374133632390       36.01005234708092
H           30.83949321203048       37.14345705110482       39.07645194263089
H           30.74343979541165       35.83152530806510       37.83448261312913
C           31.14607225947567       35.22630980003400       39.82280031219290
O           30.53014880246572       35.25539566186090       40.82378507797084
N           31.97896969137064       36.28850966832583       35.28284381793675
H           32.59406407543114       36.83356732068156       34.68624457768274
H           32.09575453691394       34.56766187229524       36.43693022675873
C           33.78597799565492       34.64715717767835       35.04969291882393
C           34.81127967996418       35.63447859148958       34.49882642141161
H           35.81136697518413       35.21954859641658       34.54770492812121
H           34.84135967587987       36.54563521053583       35.08679878178162
H           34.59434932554049       35.90276675036073       33.46819841307445
H           33.17765743424341       34.22237912233640       34.24308999537364
O           34.45031150522103       33.53667224789798       35.59558098466518
H           35.13654114382169       33.84578887939698       36.20337111099996
N           42.77670758912003       39.05473620809713       27.80560738878912
H           43.11510300438549       38.09468047455404       27.74255671407679
C           42.61591085778247       39.40062358870982       29.16524071667427
H           42.34905903266717       40.46592599180564       29.18466461652817
C           41.46913198466882       38.59126630238755       29.82900837320620
H           40.83437639744361       38.21897705648122       29.02379129161001
H           41.89944752289438       37.73344217904934       30.35386713166746
C           40.64036872197255       39.42205613443845       30.75724245278138
C           39.55347278537703       40.13361990689535       30.25235808607635
H           39.38375829691483       40.13572440214238       29.18566390412922
C           38.67557781582073       40.80811115039999       31.07715917783363
H           37.83289702716309       41.33173771523541       30.65310634305230
C           38.88741078867189       40.81608686625690       32.45649773857695
O           38.06228427494459       41.55749020390564       33.24971684054525
H           37.36620345814907       41.97082361330517       32.71507546152234
C           39.99289462098968       40.13182511037279       32.97566667409210
H           40.14198278869350       40.11451197864199       34.04470197751798
C           40.84650376491479       39.42748775324797       32.13724215879881
H           41.66846934607229       38.87897218996428       32.56979119924615
C           43.88200303488924       39.18803909426801       30.02312713784398
O           44.58693393691507       38.19634930744268       29.90712758419674
N           44.13081443963931       40.18896519724170       30.87281298944922
H           43.40023860517937       40.85474236559853       31.08121617646131
C           45.26986734103560       40.15859143331600       31.75857878084732
H           46.07330725007665       39.61889894239185       31.24191451615537
C           45.69805451301628       41.58404464028438       32.06284296800791
H           44.82753117648040       42.18889601703411       32.31998630864525
H           46.37600938851372       41.58555819644496       32.91918371090673
C           46.44789640709639       42.12240015977567       30.85493779654612
O           47.31697824589855       41.45238318550250       30.30605994418400
N           46.08512744777090       43.33559514109748       30.44241573013026
H           46.50247132800174       43.69672251589262       29.59784693712450
H           45.25102235524397       43.77932174347906       30.79123109808954
C           44.91973671209581       39.43433462118157       33.04935229175982
O           43.75731146145445       39.16189178939921       33.32970820451946
N           45.96911860471567       39.13460808241514       33.81654486829574
H           46.89879771360933       39.39109319051605       33.51834623505428
C           45.85223157036596       38.47764109811607       35.10247981561781
H           44.97111616230454       37.83312883965204       35.09984116258080
C           47.12563748748989       37.70038586394931       35.39609077489541
H           47.10004881439095       37.31300779618783       36.41599127959875
H           48.00192600718519       38.33362091206345       35.25778925330341
S           47.22798246299841       36.28783899377932       34.29729483225823
C           45.78625541806056       39.55818916735966       36.14729656080247
O           46.50101180063400       40.52143312131418       35.94702323347317
N           44.99071929542190       39.41789433586191       37.20993842460604
H           44.46024891912928       38.55989109974302       37.31458367049925
C           44.90982814239013       40.45148016562697       38.22996440701974
H           45.81615722509697       41.05611720068395       38.08431145280996
C           43.67392181558830       41.38179104878716       38.11008157600417
H           42.79450623852866       40.84935366450650       38.48355351399812
H           43.82638921350937       42.28895154603376       38.68847513051152
C           43.41157309392386       41.77452223976513       36.70613096585000
N           42.78533929488825       40.92920133362474       35.82327604681861
H           42.39477376954856       40.02517285942290       36.03080286024322
C           42.70454137593168       41.57549060163598       34.65787747593752
H           42.26869745171746       41.16448691497924       33.77231188292134
N           43.25725802945288       42.77188162734147       34.73624490456469
C           43.69154709161285       42.92645897435759       36.02305729671082
H           44.16714657238065       43.82630457114340       36.34433721885461
C           44.88270321535653       39.85221487912231       39.61124087132976
O           44.96462653973511       38.64974256654886       39.80221851178885
N           44.76029282642876       40.77554061830180       40.58654004713885
H           44.83091795454071       41.75482298893708       40.34579614409289
C           44.65703216110126       40.46316957034639       41.98666863028851
H           44.61645819197410       39.37394716157493       42.08786226256716
C           45.74682830308067       41.10123917127898       42.85402778974544
H           45.63685172771773       42.18774923770526       42.85577274852831
H           45.64001609355083       40.74621451526367       43.88109741224770
C           47.18276341862456       40.83509608019384       42.42031102617194
O           47.94989822008791       41.77787040328138       42.29184011524023
N           47.53360233550932       39.56452923401317       42.28338104900698
H           48.47668779088945       39.34665091921934       42.00151106834230
H           46.87020139255778       38.81441376775312       42.37493719183221
C           43.40732165867995       41.13519942582660       42.49284893195911
O           43.21937761117672       42.28778249600399       42.60455306788995
N           42.82921459781068       45.97595282497744       33.72014376638092
H           43.08046779772824       44.99787071164652       33.85807731815314
C           43.61156663544816       46.63619577224469       32.83517263475809
H           43.41669539388307       47.70819693810920       32.83693625633815
C           45.11974353666903       46.25223443387129       32.91481638990874
H           45.23067076180577       45.18489233386474       32.73411784335919
H           45.67441787145111       46.80144098342861       32.15254378977043
C           45.66225305838522       46.56394574754624       34.31207072344371
H           44.98026673601128       47.24175223346063       34.82779715549185
H           45.71989116779835       45.64242161033644       34.88896718476833
C           47.04230493592381       47.22105149376754       34.20325464031385
H           47.71041195713341       46.53302338657969       33.67453027368161
H           46.94805517135471       48.14876059792741       33.62886001153350
N           47.57950081618456       47.50512433247638       35.51801675204728
H           46.95358721345625       47.39549479694319       36.30067339673367
C           48.76407077946051       48.08178166463609       35.71286241851440
N           49.60115839234926       48.28268482444773       34.70275678448566
H           49.36404297421446       48.00914321994168       33.76601834330505
H           50.50370157601495       48.69571516030387       34.86306982102214
N           49.11936321240262       48.44351953497968       36.94219367652824
H           48.51701759050994       48.27153009385851       37.72813070279990
H           50.03079722344373       48.82832174807108       37.12155764869452
C           43.34359337728302       46.01440223200385       31.43351081555008
O           43.79027062352313       45.01193877220779       31.05691434503557
N           44.30155810851269       35.66280779380942       42.92923712777531
H           43.95627330293119       34.72927961622489       43.13957945582737
C           45.17899610462756       35.63076495220984       41.82848331486339
H           45.53283348865348       36.64140986221754       41.60662857842372
C           46.39250902324000       34.69183233378214       42.14344088829662
H           46.43105076959466       34.54069770849480       43.22575243362257
H           46.19611428530126       33.73062954289104       41.65601844331287
O           47.60396950123967       35.17207868916368       41.64606377497277
H           48.05482207576895       35.70009582031919       42.32026703759751
C           44.40552733951686       35.06404258336601       40.63640166366901
O           44.11868011702578       33.87022385081288       40.57805882564477
N           43.99721879047079       35.98294716577698       39.76575429899957
H           44.38357779478210       36.92361108819837       39.76958656644912
C           43.06315882232958       35.64429073276922       38.71533823372400
H           42.77109072317996       34.60171165480354       38.88808433817139
C           41.78382378302560       36.53330951903029       38.82688343484968
H           42.05991243954671       37.54504923874072       38.48013351243426
C           40.67066095526567       36.02083374749025       37.91789409678017
H           40.90941024294209       36.22207445866896       36.87739586623162
H           40.50983121674538       34.95534668902112       38.03399731594804
H           39.73953909886857       36.52099626475997       38.16291331314105
O           41.30767700917553       36.62616898552913       40.15650936870585
H           42.02064670404955       36.94493780188358       40.72989977194441
C           43.64286276261721       35.74026800725884       37.30234504236059
O           44.17878302077466       36.76981217840841       36.89386452716275
N           43.46809117901842       34.63552948200235       36.56334549210960
H           43.10930511999410       33.78522522749698       36.99117646583608
C           43.77524190621750       34.59214046247840       35.15280520574974
H           43.84410770484865       35.65739583385664       34.87394330473061
C           45.12167274498266       33.96003514605954       34.68434445458922
H           45.62073513758862       34.64818977532078       34.00323431634635
H           44.89901544307337       33.03681987962366       34.13811089088669
S           46.32614136696219       33.47650533902400       35.93355105062981
C           42.58254618833934       34.04084770619706       34.37769285422805
O           41.78180603781437       33.24021936355235       34.85182717843524
N           42.43809793974461       34.56572842193115       33.16979166453463
H           43.07635778352032       35.24952957023670       32.78366974345629
C           41.37625303897408       34.13740538555956       32.30599014044831
H           41.12032535641815       33.11412525355273       32.59227147248681
C           40.11540657622610       35.02208703012451       32.43782851971943
H           39.92471154551182       35.52572681845960       31.47956471382955
H           39.25038293239077       34.41266436951030       32.67886371759860
O           40.30144974810603       36.03431243195123       33.40347822160840
H           39.65083249926474       35.90745337126869       34.10979772879551
C           41.92955036185570       34.14759577174455       30.89988113233838
O           42.90022447326006       34.82865696134927       30.64612512108567
N           41.32429187087401       33.37151517863717       30.00374656677580
H           40.67526533533635       32.67013807259996       30.35733375607436
C           41.82077292621006       33.25262201423184       28.65323047622558
H           42.44132291118543       34.12104965992949       28.42609253874971
C           42.57944996272070       31.93295496591177       28.47531359382545
H           42.84823223232112       31.77265440702418       27.43529606719243
H           43.48942051180622       31.99327037424226       29.06743983465547
H           41.97495199759957       31.10176986123642       28.82726409889668
C           40.62929744414581       33.07616658762183       27.79061161810500
O           39.79878543392820       32.25234480370853       27.92592374059191
N           35.42538737804178       31.07366914175573       27.80797745542476
H           34.68053319687929       30.45988496606635       28.13541753225172
C           36.16823536048636       31.54990276273942       28.92259840711422
H           36.99039955832576       32.13110598895751       28.49793444955196
C           35.29892244773484       32.41116201672415       29.86787990471703
H           35.05364516430071       33.33061810127524       29.33528302734509
H           34.36896828165705       31.86742056034715       30.05567065412816
C           35.98247354492792       32.73435472868288       31.17841395929963
H           36.11777935181164       31.82184048614379       31.76665815852099
C           37.32088836449530       33.40245702149208       30.89182120952865
H           37.28134298074399       34.44111455453891       31.22624651932823
H           38.13523906495788       32.94255851713304       31.43864104013544
H           37.56489844933395       33.43971623586777       29.83653869623539
C           35.11090724584916       33.69497138953426       31.97627582065878
H           34.15111790678287       33.24313549346822       32.21577073695989
H           35.61282043351957       33.93634602708273       32.90364965297702
H           34.93629052988020       34.60697818100660       31.41347656599618
C           36.72695533986478       30.42216784415772       29.80032363315076
O           36.09615481339728       29.40893274487920       30.03780693753205
N           37.93091062044616       30.69575776833344       30.27164283671525
H           38.44990757152608       31.47352320548825       29.89131680036303
C           38.67931680109009       29.82062652837307       31.12249914975527
H           37.97948439000956       29.13248314994764       31.59690798944433
C           39.70751633093019       29.07343886618463       30.26971960513341
H           39.18356701812885       28.37865783278049       29.61282170548535
H           40.22100605087115       29.81001453832076       29.64683259345295
C           40.71419130001742       28.34185324057706       31.14460078224972
H           41.14941365812334       29.06981670622219       31.83071961868246
C           39.98649789428076       27.26132932835705       31.94778076682913
H           38.97263272789532       27.12774641053561       31.58627203395734
H           40.47310047482718       26.29739679121738       31.84168645516336
H           39.95442596374438       27.49447565704373       33.00756254864572
C           41.80159195018312       27.75034830442144       30.25363834714172
H           42.32431207213472       28.54206386941928       29.71876364173229
H           42.53489654009673       27.17103193941124       30.79293558209131
H           41.33947590946598       27.09929189321867       29.51283935686221
C           39.38336266726127       30.69326543452429       32.14607453540809
O           40.05426735539575       31.65423289619899       31.76666627396439
N           39.20221641549838       30.33973219057263       33.41635856485910
H           38.70688748501502       29.48019003796305       33.61495479514672
C           39.72142928247570       31.05398113182513       34.56383160662322
H           40.38384515029902       31.84008987048984       34.20204613428862
C           38.57684580128377       31.66208367303099       35.37560999064424
H           37.84567137778344       30.88334941405360       35.55041402469850
H           38.96016780132987       31.98074377116317       36.34884626283817
C           37.95651997982475       32.86973673043478       34.69983202971910
H           38.57513632739257       33.21839385594503       33.87689568176242
H           36.96307285802137       32.64320323428707       34.30375598040388
C           37.79342065858560       34.00183998107054       35.71087132718988
O           37.77802285910782       35.17364634305326       35.28353438991969
O           37.68540169823238       33.63157000499675       36.90957581541861
C           40.47385889792159       30.17626097535158       35.54389062899418
O           40.11433030977661       29.05010238292972       35.85246123006313
N           41.50487751983829       30.75615481139788       36.12716315521643
H           41.78340500128783       31.70566148831020       35.90100124428177
C           42.20344917691810       30.04532849546752       37.16050078418329
H           41.54825331068130       29.21940953760804       37.46148117674375
C           43.53357011199565       29.46165394075826       36.68543665339799
H           44.20842136214774       30.27489852188818       36.40805805438686
H           43.97836238435709       28.89183640548866       37.50069820332737
C           43.23109109527848       28.58882200219259       35.51382915866892
C           42.83162117998081       27.26867502123033       35.69117207768334
H           42.78089512632449       26.85731482970635       36.68797068940711
C           42.54860901586157       26.47422826907417       34.59114368518545
H           42.26255815112469       25.44334641939356       34.72195258455073
C           42.63957084039637       27.02187184003981       33.32001526984088
H           42.50157368349775       26.35887727748669       32.48536658007754
C           42.98941093438241       28.35152864680972       33.13192648815878
H           43.15096641568975       28.76012083914927       32.15097715270186
C           43.26746159033023       29.13315861055887       34.23686901501939
H           43.55748018357221       30.16828133360416       34.11156919727024
C           42.38298740889854       31.01357102898534       38.28256591858283
O           42.67618167852355       32.19299192924060       38.08573227210523
N           42.09359944075169       30.54443587798094       39.47899054321563
H           41.75875999181071       29.61022154622041       39.66263565614206
C           42.13362952847319       31.49564601250090       40.54139644770108
H           42.87966705930071       32.24707576820490       40.26525170141444
C           40.77445758781118       32.22305022633999       40.70846570712624
H           40.10588088933159       31.56330632847039       41.27552835257430
C           40.97248187712638       33.52429426965747       41.47195375259354
H           41.39306336045937       33.34264311113800       42.45877520427748
H           41.63300734015595       34.18627803000534       40.92273284313349
H           40.02125603088198       34.03560453163773       41.59083505998840
C           40.10387160692050       32.52650115442247       39.37110936814944
H           39.17783631920541       33.07400134204820       39.52996157952012
H           40.74295627598474       33.13297046214177       38.73986563162452
H           39.84989896981884       31.62136356684695       38.82094052758766
C           42.51379668121988       30.76683982292244       41.78825822590562
O           41.98712184244199       29.71836034764199       42.09447857877522
N           43.45327013984504       31.36947115460771       42.51662068253517
H           43.87342351455239       32.22192253745718       42.16056915147582
C           43.88401464629546       30.81874831338257       43.76190871141564
H           43.20553207891602       30.00538838419792       44.02877893446955
C           45.33156717889053       30.26634796837860       43.61903523491763
H           46.02367433999074       31.10671660117460       43.48177484978081
C           45.60110508308951       29.53572652535789       44.90675070064876
H           44.93645015675015       28.68098055775461       44.98811058390981
H           46.62440529993405       29.16792574257485       44.92730899229321
H           45.44551355107054       30.20027570838169       45.75234224950608
O           45.37630094683539       29.39771619369795       42.53235267945424
H           45.61608687987627       29.85284730153436       41.71665483743804
C           44.01027158547915       31.90544928643106       44.76512311826035
O           44.33961871065324       33.01822103529169       44.54162680726301
