314
 energy: -513.647266880691 gnorm: 0.003704578206 xtb: 6.6.1 (8d0f1dd)
N           39.40206885126831       27.30793090891508       37.71272527491880
H           39.98192015189440       28.14318371430224       37.65552948346095
C           38.23461802737990       27.39336067416238       36.99380279161188
H           37.54367992815147       26.59563545067332       37.26852070354888
C           37.51667977984767       28.77626541938919       36.93185871864012
H           38.26385168386033       29.52631813512869       36.66605684319045
H           36.74758464996356       28.78487124751585       36.15741236223589
C           36.88907878545139       29.10623172505681       38.28970943533166
H           37.50396821225216       28.65005131020460       39.07250985995168
C           36.86773098192605       30.62388844127656       38.52861654334443
H           36.65742414906023       31.17842138248634       37.61913750288338
H           36.07292285426219       30.87504852303232       39.22918357819723
H           37.78795601429913       30.98946285991586       38.96799717365662
C           35.48572149050307       28.50619893817954       38.34628841438757
H           35.51221257239882       27.44777398889281       38.10735488854077
H           35.06746512698003       28.63095791163127       39.34118874120951
H           34.84014367271966       29.02064855624032       37.63804645345490
C           38.64850612491506       27.23726707910864       35.52003317317764
O           39.47005773045937       27.65496185352895       34.82041227726998
C           37.25808820075888       39.31940004477435       40.68145673150151
C           38.47855536033232       39.83057732419202       40.34760966434720
C           39.18049934754835       39.38836095697354       39.18327721161759
C           36.57999990587145       38.33233232915926       39.90747215059126
C           37.26563427672566       37.90556830415429       38.73873931545787
C           38.48703190260866       38.40659993487743       38.38459472301812
C           35.30552161704237       37.80892013706701       40.26655625485245
C           34.41417484969411       36.89290544514756       39.69502795331037
C           33.10312653891354       36.53988573610847       40.30469744590881
H           36.77483600200135       39.66568118580883       41.58614160244576
H           38.95972384879590       40.56040610062982       40.98402178476308
H           39.00145564527226       38.02607752531414       37.50956709587901
H           36.82223333932679       37.12851435394739       38.13177807569936
H           34.90177661840399       38.21093344100680       41.19424909346895
O           40.38146268938181       39.71262690501071       38.93707669732822
O           32.55338718026710       36.95806834635010       41.32249993720075
N           34.53143342483209       36.13565355523806       38.53101114245825
N           32.53512332212087       35.58165245915389       39.45662394304322
C           33.47473482144903       35.36715426784775       38.41754898518053
C           31.22882448544052       34.97578211981605       39.69282117233735
C           33.17368182335219       34.48431292872215       37.21682339684013
H           30.57101693476322       35.77021715459977       40.06838887035057
H           30.83871109338722       34.61745701902402       38.73642793218410
C           31.14299326663706       33.88400671724634       40.70483745941584
O           31.84767122695552       33.33361838758969       41.47068334901720
N           32.34568724438498       35.28553198571296       36.36950508025674
H           32.91894998872753       36.02942979128607       35.97787354515777
H           32.61974107385799       33.59483840822003       37.53809365800553
C           34.44224489407934       34.00862240908145       36.42339249507820
C           35.33669411566120       35.18050622117730       36.01839835705812
H           36.38468868367686       34.93326938369685       36.18119578194442
H           35.13957160025671       36.04914192587029       36.63885618325637
H           35.19416089653964       35.44819424681887       34.97548556210921
H           34.04607744066350       33.50526954431534       35.53251723165751
O           35.12935899051341       32.99425135247186       37.12661421861194
H           35.81125473696852       33.38805510142674       37.70402807382936
N           43.33532393518023       40.25934685129443       30.49687025520253
H           43.92732465586524       39.42697255574551       30.50977933067024
C           42.92674980392030       40.52581179516699       31.83671009367179
H           42.45704714841303       41.51937315362766       31.82819466029379
C           41.87426873735275       39.50108071230861       32.32191043658709
H           41.44021233083726       39.03817456443557       31.43260415175233
H           42.37855923637574       38.71411372521578       32.89540279770254
C           40.78340843464996       40.12874414203466       33.13356467480202
C           39.66030034206204       40.64403199463435       32.49227502928963
H           39.63829346555774       40.64266230965009       31.41281913366957
C           38.56507458776951       41.11607057827177       33.19552759971968
H           37.69755996900804       41.48061177256469       32.66880982388945
C           38.59530537891226       41.10623835284273       34.58771843138246
O           37.55837729161459       41.55474610424273       35.34078539259416
H           36.83646578289990       41.86191753441273       34.76582149310961
C           39.73146251525199       40.62862237961296       35.24409822118412
H           39.73082314892717       40.58483331323522       36.32440972022918
C           40.80455721879818       40.12415295633757       34.52616493326156
H           41.64669362267401       39.70914498387565       35.06201736043479
C           44.07895319537388       40.53123036684554       32.84496166429341
O           45.02633578753321       39.75836238786097       32.76986455142893
N           44.01680195378766       41.53260685208213       33.74006993525191
H           43.10699387826076       41.92578226438820       33.93875822441174
C           45.01425059598885       41.67921515724972       34.77066765163003
H           45.96061577912993       41.30589077239936       34.36057249058253
C           45.12171928171930       43.14879158469356       35.14186328599759
H           44.12184232033041       43.56280088858673       35.28208691719434
H           45.66175005308276       43.23911490348530       36.08730771157288
C           45.91437126712960       43.86943141922757       34.06696362593011
O           47.01879159804538       43.48049382741821       33.71456807151517
N           45.36760932818313       44.99846343568760       33.59824141178786
H           45.82383768917552       45.45196956666062       32.81940146267029
H           44.38928715260811       45.18202547123115       33.74480408445869
C           44.64744887586269       40.85626615312623       35.99628487867454
O           43.54256638486628       40.33434598988269       36.12784394079074
N           45.61697187254728       40.74019631227844       36.90187464987768
H           46.53515184683004       41.11869429840105       36.71685983950050
C           45.45035921325809       40.03837631306081       38.15742399587155
H           44.70742174600930       39.24654303498812       38.04080124628101
C           46.79470676781581       39.49176933665287       38.61450093890069
H           46.69624611984356       39.06814934395064       39.61792135612721
H           47.54535264248927       40.28242043950237       38.61334042506458
S           47.31051242270622       38.16655461428039       37.51906409040585
C           45.03941980053764       41.05643074094981       39.19004348061836
O           45.55008880544289       42.17624473377585       39.16421933895082
N           44.15100261673729       40.71794405968689       40.12832854887898
H           43.74884008587846       39.78899868816156       40.12156063969583
C           43.73847738029604       41.68138725512595       41.13639884457415
H           44.53181079071229       42.44133089510049       41.12475525900706
C           42.37912122229871       42.37201135892670       40.84991435261514
H           41.57399492222955       41.67061923778075       41.09367210742021
H           42.27658663252517       43.26891358261057       41.45542063164892
C           42.23591697280790       42.75648235228245       39.42697424149902
N           41.89965911414464       41.83867184203687       38.46088476042215
H           41.60636981400808       40.88360192041869       38.61697193585180
C           41.86027047226489       42.49757865072565       37.29904498151295
H           41.62927761540709       42.03645732759490       36.36121895311262
N           42.16602816532200       43.77193437942784       37.46072759319662
C           42.38600270626750       43.96136052611114       38.79723810126314
H           42.64121001222485       44.92188397070180       39.18505807876091
C           43.62383483664257       41.04631419510286       42.50053668910075
O           43.84775881012808       39.86285098534663       42.73927483686943
N           43.22553429680337       41.90406791137825       43.44351566064331
H           43.12723765641678       42.88308126809699       43.21544403484047
C           42.96629508287325       41.54240669998237       44.81950054181709
H           43.11093377703941       40.46131432227598       44.91489220929999
C           43.80851083143328       42.32904588043404       45.83193051553325
H           43.48490869339952       43.37215509624029       45.84079044605792
H           43.62590725263418       41.90569978573432       46.82070647668522
C           45.30977893442749       42.35038308366546       45.59240110182515
O           45.91615172938075       43.40962880701878       45.51603090963238
N           45.90748250353828       41.16652923743547       45.51003747647002
H           46.89906576370787       41.13065892515453       45.33456045155377
H           45.38782915469641       40.30584787223263       45.53141522793457
C           41.55241229205667       41.88020495224209       45.17424681378951
O           40.69833743431947       42.49540007238480       44.63341214895934
N           41.27420893803168       46.87101133181876       36.38809627923556
H           41.68390516302864       45.96012365952349       36.58616601633542
C           42.07236366231236       47.69153115511014       35.63334673364354
H           41.70919529789781       48.71949551120525       35.62392290037496
C           43.58348081718196       47.58961403673568       35.92387927303546
H           43.91950593590112       46.56854980467409       35.73524184238944
H           44.12286722461742       48.26127830227186       35.25541182210546
C           43.85232559211651       47.95330493063179       37.39345263626645
H           42.97930396589992       48.46410324710700       37.80118286272248
H           44.00633310075541       47.04168780505778       37.96988460170375
C           45.07909677365365       48.86333321610223       37.48863260632273
H           45.93061243241372       48.33028600511170       37.05228457903799
H           44.88668353124346       49.77629411117649       36.91566414266467
N           45.36634663172055       49.19982654774275       38.86775871745029
H           44.68642251493285       48.92013666102650       39.55708243709309
C           46.38526354379053       49.97760510933648       39.23103650011853
N           47.29480363475142       50.36855790969560       38.34756872366864
H           47.25481543162837       50.06317781766337       37.39156981244368
H           48.08006596623630       50.92527318605858       38.63858824995003
N           46.49304608478337       50.36151201909682       40.49982312744824
H           45.84225719675686       50.03658939028878       41.19339721158848
H           47.29631472183191       50.87964027365859       40.81219193486540
C           41.98360671555068       47.08593761481703       34.24525989543359
O           41.86756010266618       46.06377615138017       33.70815923908403
N           43.41846621918837       36.71570751513201       45.67052874810447
H           43.16166618945252       35.73114548519928       45.72126198236419
C           44.44010511989898       36.88157299998102       44.69197838796633
H           44.61426897497040       37.95002118892469       44.52765871910501
C           45.73722669680915       36.18301782555660       45.17432635748571
H           46.04203931125394       36.65233163532046       46.11590415229424
H           45.50443959315351       35.13270976389772       45.35930332012132
O           46.78809050701584       36.17572110535870       44.24679587904696
H           47.03411347828137       37.07949763619267       44.01554842680850
C           43.94275501238118       36.22305703280717       43.41640880089803
O           43.83729067310201       35.00031875491143       43.34899903881857
N           43.49324878659892       37.07594989328923       42.49085340046376
H           43.69337234109463       38.07014994679506       42.54701368568679
C           42.79299048522433       36.60414406346653       41.32127762170576
H           42.68639584169446       35.51941519384583       41.44840107761765
C           41.36530058193098       37.22827766494890       41.25958718669987
H           41.47020050422228       38.29398310751042       40.99214113429620
C           40.49990136342306       36.55608445276501       40.20083218158292
H           40.81128037870266       36.84944440481100       39.20048002069095
H           40.55404050785014       35.47488791707509       40.26783226602127
H           39.46294867013334       36.85173288277994       40.32941390765713
O           40.71719509791333       37.10212696314699       42.49509571779637
H           41.26788239775325       37.49664697068252       43.19078010611076
C           43.51384169623528       36.85064792719905       40.00223170550773
O           43.82591553437501       37.98131629581807       39.63993006096954
N           43.66421423677917       35.75870699471626       39.24031957741602
H           43.50672339379032       34.83413264900809       39.63443882842002
C           44.15865657316319       35.82491441065233       37.88546639705807
H           44.06066279584231       36.89564309810151       37.63169214904062
C           45.65253208165590       35.47090493946776       37.60459020566854
H           46.09278167457372       36.26549581142893       37.00237492778866
H           45.67445025020824       34.54591384618058       37.01322483090803
S           46.74382100756317       35.17196935720984       39.00434535024176
C           43.22401615894814       35.08199514676364       36.94765714155956
O           42.64458195668833       34.05248446928022       37.27973054004191
N           43.12760012107491       35.61618893218655       35.73836923563307
H           43.58029475778678       36.48681793321227       35.49625586558621
C           42.29908636021617       35.02640686641884       34.72926234648882
H           42.21730591320559       33.96590119413339       34.97612287075977
C           40.88491158387862       35.65308763392273       34.69737201208414
H           40.82534671037390       36.35011498488196       33.84873026761272
H           40.14030893909165       34.87361235125797       34.55688088931999
O           40.61639673649561       36.42615901365041       35.84028890391198
H           40.05625290818823       35.92342470031736       36.48483492038287
C           43.01550933246823       35.20164834313606       33.40496954666293
O           43.78781628813311       36.14599752094906       33.23970510227177
N           42.71372570256488       34.33594466993956       32.45044693552440
H           42.15498504985873       33.52694039600571       32.70894305502582
C           43.36912228623849       34.34685077074070       31.16209909125979
H           43.83825059326965       35.32205167150571       31.01888549913878
C           44.38983094329480       33.21007303474408       31.08612539101241
H           43.89988657572530       32.26019011382663       31.28498823205212
H           44.84966116472903       33.18319536303979       30.10354889665553
H           45.15449888844853       33.37824445829189       31.83977906007103
C           42.35681821549458       34.05674427065090       30.11914629786646
O           41.25871427190853       33.60013660028461       30.20510351649021
N           37.68657658135159       31.05518387445008       29.42684549808362
H           37.07601813166336       30.27139961184177       29.66337968961885
C           38.17368105290052       31.61913923871613       30.64781765551782
H           38.92378401877279       32.35786674076067       30.35396351273448
C           37.03801820174028       32.28026818401646       31.46011432747958
H           36.69836008386697       33.15690059856290       30.90758933416263
H           36.21045443230829       31.56744031935456       31.51459664731145
C           37.46286092527080       32.68058945771592       32.85640589026283
H           37.69026254430887       31.79083812134305       33.45134565885422
C           38.67886810969793       33.59241439706576       32.76379316860021
H           38.41753057721633       34.58819763310822       33.12960064803522
H           39.49896344713478       33.25171448698232       33.38434692983342
H           39.03653062609909       33.73253992893600       31.75087997188238
C           36.32747153417971       33.43449313132660       33.53416727266498
H           35.42881799347106       32.82312674252176       33.58779553058979
H           36.62390331291703       33.68836501333038       34.54416600473407
H           36.09914413618039       34.34701425094206       32.99013894020237
C           38.79586432143105       30.59328022265492       31.58935296533819
O           38.30965703877393       29.49138130066649       31.81023076227821
N           39.86915058105140       31.06748606214013       32.21188839485166
H           40.28464412537255       31.92655684122325       31.88321984440936
C           40.64784609290943       30.32350068629706       33.15336739501058
H           40.02946156459613       29.50274284727978       33.51998559452974
C           41.90365510826643       29.80933102937217       32.44626613579749
H           41.61078926916930       29.05537495348684       31.71532593234962
H           42.34600142798395       30.65363152169413       31.90979018104855
C           42.90270550925091       29.24857664233958       33.44670322792985
H           43.09290150704704       30.02680182135292       34.18892621968225
C           42.28779390886615       28.02666945419415       34.13333348026776
H           41.41245658233868       27.68606545977115       33.58949113212682
H           42.98274819033490       27.19438145025466       34.15445147073854
H           42.00383152339163       28.24205252114742       35.16033432895235
C           44.19196520355374       28.90067910345216       32.71010770294824
H           44.61509697086030       29.79591396509446       32.25554492726874
H           44.94544451010581       28.46048246053871       33.34446608661098
H           43.96369978235950       28.19717484715764       31.91123019362576
C           41.01875157979977       31.27610144504285       34.27318925985426
O           41.49475603822199       32.37973993491776       34.01693014469502
N           40.74460105150807       30.85105931465436       35.50637726313420
H           40.44616573499365       29.89423653018491       35.64513416616900
C           40.95961144105241       31.61726492133846       36.71388375863253
H           41.49830558699050       32.52769413691033       36.45160353793090
C           39.62350062501945       31.97576518135213       37.37434313835894
H           39.03134199389221       31.07372713584268       37.45602476757134
H           39.83219002166893       32.33992967901190       38.38629279200818
C           38.87861311822372       33.06408539762519       36.61543053348432
H           39.54091050290835       33.54623630269075       35.89822099339771
H           38.02241662071233       32.64565053334493       36.07946117024981
C           38.37849773112448       34.13072114326167       37.57762249748708
O           38.95520398928024       35.24587700264692       37.54245625376753
O           37.46136688503700       33.83880919879225       38.37068416572820
C           41.72774870886408       30.85268266936767       37.77311823683624
O           41.53502493380059       29.65043054166885       37.93564896667255
N           42.53206469583879       31.59191407535943       38.51207457554884
H           42.67542143353274       32.57572937036392       38.31976480242626
C           43.21582218648637       30.99321873242297       39.62167163032301
H           42.69507431863173       30.04835007262010       39.82139856584924
C           44.68688268392914       30.68934506232085       39.33088642994681
H           45.21820192306441       31.62955460581006       39.15878767114256
H           45.11900771935865       30.19534632244568       40.20068462327482
C           44.71685548144169       29.81535773259963       38.12268259421135
C           44.55443985729936       28.43837926433827       38.23307009136855
H           44.44840040187055       27.99688928190895       39.21179360314045
C           44.57704293052239       27.64241378980442       37.09857521593300
H           44.47534072888681       26.57331768880393       37.18065389430512
C           44.73408464649278       28.23989445188305       35.85655660266191
H           44.84330106725753       27.59499825118984       35.00393440512805
C           44.84678782790780       29.61742428465123       35.72845895072455
H           45.05657117001174       30.08857569734262       34.78488886921047
C           44.82042535301404       30.40002494917726       36.86723904315548
H           44.91887648716036       31.47763478330842       36.79280554180082
C           43.08750746722847       31.94393906446791       40.76401963001136
O           43.33987589778134       33.14181804917661       40.61848377723303
N           42.70423708350358       31.39374994959648       41.90262311976038
H           42.42482103479090       30.42748693661333       41.98765352496433
C           42.42106121388949       32.29323839445871       42.97233321132043
H           43.04940595870574       33.17410023250225       42.81518968995002
C           40.94094000996090       32.75206394283099       42.95425067465904
H           40.33363774183597       31.96368189586960       43.41650635803258
C           40.78518667826469       34.04127960815181       43.74691385925214
H           41.10905916594523       33.91177051860944       44.77736891070600
H           41.37274059928762       34.83333584176210       43.29531350433722
H           39.74758246893484       34.36408073938917       43.74390863510654
C           40.41564087203578       32.97044978971584       41.53718274525846
H           41.05341029294433       33.65454655912646       40.98287614234719
H           40.35274158028714       32.04086755339407       40.97153631274248
H           39.41829996046778       33.40560445109080       41.56745629363790
C           42.76347006559924       31.60468135112987       44.25756314380440
O           42.40137332406023       30.46406270040953       44.51335067063945
N           43.46769728388238       32.35252299476016       45.10266519856741
H           43.78862731234182       33.26130293422715       44.78836096715496
C           43.82399140049780       31.86678764992495       46.40207687816363
H           43.25977916818557       30.94120032766519       46.56345320747664
C           45.34864669244612       31.57709493761414       46.45172685855857
H           45.90035402255315       32.51951717179853       46.37331748254746
C           45.57975274274636       30.87772333652191       47.76432632613769
H           45.25192908294625       31.51268566523127       48.58368936705078
H           45.02445036604276       29.94405398749323       47.79878966473773
H           46.63760966425415       30.65804026407288       47.89489466186768
O           45.73668690991678       30.83653841731816       45.33784780276889
H           45.39890458086240       29.92968023704503       45.41105150577609
C           43.55527023551752       32.87435320467659       47.43720223445823
O           43.44585857366196       34.03582461757463       47.55857853985083
